resources/powernetworkdata/ieee30matpower.txt
 08/20/93 UW ARCHIVE           100.0  1961 W IEEE 30 Bus Test Case
BUS DATA FOLLOWS                            30 ITEMS
   1 Bus 1    132  1  1  3   135    0.0     0         0.0     80.0   -16.1   132.0  1.060     0.0     0.0   0.0    0.0        0
   2 Bus 2    132  1  1  2   135  -5.48     21.7     12.7     80.0    50.0   132.0  1.045    50.0   -40.0   0.0    0.0        0
   3 Bus 3    132  1  1  0   135  -7.96     2.4       1.2      0.0     0.0   132.0  0.0       0.0     0.0   0.0    0.0        0
   4 Bus 4    132  1  1  0   135  -9.62     7.6       1.6      0.0     0.0   132.0  0.0       0.0     0.0   0.0    0.0        0
   5 Bus 5    132  1  1  2   135 -14.37     0        19.0      0.0    37.0   132.0  1.010    40.0   -40.0   0.0    0.0        0
   6 Bus 6    132  1  1  0   135 -11.34     0         0.0      0.0     0.0   132.0  0.0       0.0     0.0   0.0    0.0        0
   7 Bus 7    132  1  1  0   135 -13.12     22.8     10.9      0.0     0.0   132.0  0.0       0.0     0.0   0.0    0.0        0
   8 Bus 8    132  1  1  2   135 -12.10     30       30.0      0.0    37.3   132.0  1.010    40.0   -10.0   0.0    0.0        0
   9 Bus 9    1.0  1  1  0   135 -14.38     0         0.0      0.0     0.0     1.0  0.0       0.0     0.0   0.0    0.0        0
  10 Bus 10    33  1  1  0   135 -15.97     5.8       2.0      0.0     0.0    33.0  0.0       0.0     0.0   0.0    0.19       0
  11 Bus 11    11  1  1  2   135 -14.39     0         0.0      0.0    16.2    11.0  1.082    24.0    -6.0   0.0    0.0        0
  12 Bus 12    33  1  1  0   135 -15.24     11.2      7.5      0.0     0.0    33.0  0.0       0.0     0.0   0.0    0.0        0
  13 Bus 13    11  1  1  2   135 -15.24     0         0.0     40.0    10.6    11.0  1.071    24.0    -6.0   0.0    0.0        0
  14 Bus 14    33  1  1  0   135 -16.13     6.2       1.6      0.0     0.0    33.0  0.0       0.0     0.0   0.0    0.0        0
  15 Bus 15    33  1  1  0   135 -16.22     8.2       2.5      0.0     0.0    33.0  0.0       0.0     0.0   0.0    0.0        0
  16 Bus 16    33  1  1  0   135 -15.83     3.5       1.8      0.0     0.0    33.0  0.0       0.0     0.0   0.0    0.0        0
  17 Bus 17    33  1  1  0   135 -16.14     9         5.8      0.0     0.0    33.0  0.0       0.0     0.0   0.0    0.0        0
  18 Bus 18    33  1  1  0   135 -16.82     3.2       0.9      0.0     0.0    33.0  0.0       0.0     0.0   0.0    0.0        0
  19 Bus 19    33  1  1  0   135 -17.00     9.5       3.4      0.0     0.0    33.0  0.0       0.0     0.0   0.0    0.0        0
  20 Bus 20    33  1  1  0   135 -16.80     2.2       0.7      0.0     0.0    33.0  0.0       0.0     0.0   0.0    0.0        0
  21 Bus 21    33  1  1  0   135 -16.42     17.5     11.2      0.0     0.0    33.0  0.0       0.0     0.0   0.0    0.0        0
  22 Bus 22    33  1  1  0   135 -16.41     0         0.0     50.0     0.0    33.0  0.0       0.0     0.0   0.0    0.0        0
  23 Bus 23    33  1  1  0   135 -16.61     3.2       1.6     30.0     0.0    33.0  0.0       0.0     0.0   0.0    0.0        0
  24 Bus 24    33  1  1  0   135 -16.78     8.7       6.7      0.0     0.0    33.0  0.0       0.0     0.0   0.0    0.043      0
  25 Bus 25    33  1  1  0   135 -16.35     0         0.0      0.0     0.0    33.0  0.0       0.0     0.0   0.0    0.0        0
  26 Bus 26    33  1  1  0   135 -16.77     3.5       2.3      0.0     0.0    33.0  0.0       0.0     0.0   0.0    0.0        0
  27 Bus 27    33  1  1  0   135 -15.82     0         0.0     55.0     0.0    33.0  0.0       0.0     0.0   0.0    0.0        0
  28 Bus 28   132  1  1  0   135 -11.97     0         0.0      0.0     0.0   132.0  0.0       0.0     0.0   0.0    0.0        0
  29 Bus 29    33  1  1  0   135 -17.06     2.4       0.9      0.0     0.0    33.0  0.0       0.0     0.0   0.0    0.0        0
  30 Bus 30    33  1  1  0   135 -17.94     10.6      1.9      0.0     0.0    33.0  0.0       0.0     0.0   0.0    0.0        0
-999
BRANCH DATA FOLLOWS                         41 ITEMS
   1   2   1  1 1 0  0.02      0.06        0.0528   130     0     0    0 0  0.0       0.0 0.0    0.0     0.0    0.0   0.0
   1   3   1  1 1 0  0.05      0.19        0.0408   130     0     0    0 0  0.0       0.0 0.0    0.0     0.0    0.0   0.0
   2   4   1  1 1 0  0.06      0.17        0.0368   65      0     0    0 0  0.0       0.0 0.0    0.0     0.0    0.0   0.0
   3   4   1  1 1 0  0.01      0.04        0.0084   130     0     0    0 0  0.0       0.0 0.0    0.0     0.0    0.0   0.0
   2   5   1  1 1 0  0.05      0.2         0.0418   130     0     0    0 0  0.0       0.0 0.0    0.0     0.0    0.0   0.0
   2   6   1  1 1 0  0.06      0.18        0.0374   65      0     0    0 0  0.0       0.0 0.0    0.0     0.0    0.0   0.0
   4   6   1  1 1 0  0.01      0.04        0.0090   90      0     0    0 0  0.0       0.0 0.0    0.0     0.0    0.0   0.0
   5   7   1  1 1 0  0.05      0.12        0.0204   70      0     0    0 0  0.0       0.0 0.0    0.0     0.0    0.0   0.0
   6   7   1  1 1 0  0.03      0.08        0.0170   130     0     0    0 0  0.0       0.0 0.0    0.0     0.0    0.0   0.0
   6   8   1  1 1 0  0.01      0.04        0.0090   32      0     0    0 0  0.0       0.0 0.0    0.0     0.0    0.0   0.0
   6   9   1  1 1 0  0         0.21        0.0      65      0     0    0 0  0.978     0.0 0.0    0.0     0.0    0.0   0.0
   6   10  1  1 1 0  0         0.56        0.0      32      0     0    0 0  0.969     0.0 0.0    0.0     0.0    0.0   0.0
   9   11  1  1 1 0  0         0.21        0.0      65      0     0    0 0  0.0       0.0 0.0    0.0     0.0    0.0   0.0
   9   10  1  1 1 0  0         0.11        0.0      65      0     0    0 0  0.0       0.0 0.0    0.0     0.0    0.0   0.0
   4   12  1  1 1 0  0         0.26        0.0      65      0     0    0 0  0.932     0.0 0.0    0.0     0.0    0.0   0.0
  12   13  1  1 1 0  0         0.14        0.0      65      0     0    0 0  0.0       0.0 0.0    0.0     0.0    0.0   0.0
  12   14  1  1 1 0  0.12      0.26        0.0      32      0     0    0 0  0.0       0.0 0.0    0.0     0.0    0.0   0.0
  12   15  1  1 1 0  0.07      0.13        0.0      32      0     0    0 0  0.0       0.0 0.0    0.0     0.0    0.0   0.0
  12   16  1  1 1 0  0.09      0.2         0.0      32      0     0    0 0  0.0       0.0 0.0    0.0     0.0    0.0   0.0
  14   15  1  1 1 0  0.22      0.2         0.0      16      0     0    0 0  0.0       0.0 0.0    0.0     0.0    0.0   0.0
  16   17  1  1 1 0  0.08      0.19        0.0      16      0     0    0 0  0.0       0.0 0.0    0.0     0.0    0.0   0.0
  15   18  1  1 1 0  0.11      0.22        0.0      16      0     0    0 0  0.0       0.0 0.0    0.0     0.0    0.0   0.0
  18   19  1  1 1 0  0.06      0.13        0.0      16      0     0    0 0  0.0       0.0 0.0    0.0     0.0    0.0   0.0
  19   20  1  1 1 0  0.03      0.07        0.0      32      0     0    0 0  0.0       0.0 0.0    0.0     0.0    0.0   0.0
  10   20  1  1 1 0  0.09      0.21        0.0      32      0     0    0 0  0.0       0.0 0.0    0.0     0.0    0.0   0.0
  10   17  1  1 1 0  0.03      0.08        0.0      32      0     0    0 0  0.0       0.0 0.0    0.0     0.0    0.0   0.0
  10   21  1  1 1 0  0.03      0.07        0.0      32      0     0    0 0  0.0       0.0 0.0    0.0     0.0    0.0   0.0
  10   22  1  1 1 0  0.07      0.15        0.0      32      0     0    0 0  0.0       0.0 0.0    0.0     0.0    0.0   0.0
  21   22  1  1 1 0  0.01      0.02        0.0      32      0     0    0 0  0.0       0.0 0.0    0.0     0.0    0.0   0.0
  15   23  1  1 1 0  0.1       0.2         0.0      16      0     0    0 0  0.0       0.0 0.0    0.0     0.0    0.0   0.0
  22   24  1  1 1 0  0.12      0.18        0.0      16      0     0    0 0  0.0       0.0 0.0    0.0     0.0    0.0   0.0
  23   24  1  1 1 0  0.13      0.27        0.0      16      0     0    0 0  0.0       0.0 0.0    0.0     0.0    0.0   0.0
  24   25  1  1 1 0  0.19      0.33        0.0      16      0     0    0 0  0.0       0.0 0.0    0.0     0.0    0.0   0.0
  25   26  1  1 1 0  0.25      0.38        0.0      16      0     0    0 0  0.0       0.0 0.0    0.0     0.0    0.0   0.0
  25   27  1  1 1 0  0.11      0.21        0.0      16      0     0    0 0  0.0       0.0 0.0    0.0     0.0    0.0   0.0
  28   27  1  1 1 0  0         0.4         0.0      65      0     0    0 0  0.968     0.0 0.0    0.0     0.0    0.0   0.0
  27   29  1  1 1 0  0.22      0.42        0.0      16      0     0    0 0  0.0       0.0 0.0    0.0     0.0    0.0   0.0
  27   30  1  1 1 0  0.32      0.6         0.0      16      0     0    0 0  0.0       0.0 0.0    0.0     0.0    0.0   0.0
  29   30  1  1 1 0  0.24      0.45        0.0      16      0     0    0 0  0.0       0.0 0.0    0.0     0.0    0.0   0.0
  8    28  1  1 1 0  0.06      0.2         0.0428   32      0     0    0 0  0.0       0.0 0.0    0.0     0.0    0.0   0.0
  6    28  1  1 1 0  0.02      0.06        0.0130   32      0     0    0 0  0.0       0.0 0.0    0.0     0.0    0.0   0.0
-999
LOSS ZONES FOLLOWS                     1 ITEMS
  1 IEEE 30 BUS
-99
INTERCHANGE DATA FOLLOWS                 1 ITEMS
-9
 1    2 Claytor  132    0.0  999.99  IEEE30  IEEE 30 Bus Test Case
TIE LINES FOLLOWS                     0 ITEMS
-999
END OF DATA
